[General]
network = WiredNetwork
sim-time-limit = 100s
**.hasUdp = true
**.hasTcp = true
**.cliG1[*].numApps = 1
**.cliG1[*].app[*].typename = "UdpVideoStreamClient"
**.cliG1[*].app[*].serverAddress = "WiredNetwork.server"
**.cliG1[*].app[*].serverPort = 5060
**.cliG2[*].numApps = 1
**.cliG2[*].app[*].typename = "UdpVideoStreamClient"
**.cliG2[*].app[*].serverAddress = "WiredNetwork.server"
**.cliG2[*].app[*].serverPort = 5060
**.server.numApps = 1
**.server.app[*].typename = "UdpVideoStreamServer"
**.server.app[*].localPort = 5060
**.server.app[*].sendInterval = 0.01s
**.server.app[*].videoSize = 1000000B
**.server.app[*].packetLen = 1500B
